&NAMDIM
    nx = 401
    ny = 401
    
    xmin = -1.0
    xmax = 1.0
    ymin = -1.0
    ymax = 1.0
    
    jacobi       = .TRUE.
    jacobi_OMP   = .FALSE.
    gauss_seidel = .FALSE.

    converge = .TRUE.
    kmax     = 1.0d-5
    nstop    = 200000000
    
    writeout = .FALSE.
    nwrt     = 200
&END
