&NAMDIM
    nx = 41
    ny = 41
    
    xmin = -1.0
    xmax = 1.0
    ymin = -1.0
    ymax = 1.0
    
    jacobi       = .FALSE.
    jacobi_OMP   = .TRUE.
    gauss_seidel = .FALSE.

    converge = .FALSE.
    kmax     = 1.0d-5
    nstop    = 20000
    
    writeout = .FALSE.
    nwrt     = 200
&END
