&NAMDIM
    nx = 11
    ny = 11
    
    xmin = -1.0
    xmax = 1.0
    ymin = -1.0
    ymax = 1.0
    
    jacobi       = .FALSE.
    jacobi_OMP   = .FALSE.
    gauss_seidel = .TRUE.

    converge = .TRUE.
    eps      = 1.0d-5
    nstop    = 200000000
    
    writeout = .FALSE.
    nwrt     = 200
&END
