&NAMDIM
  nx = 400
  ny = 400
  nstop = 2000
  resi_limit = 0.000000001
  xmin = 0.0
  xmax = 1.0
  ymin = 0.0
  ymax = 1.0
  ndimi = 3
  ndimj = 3
  ndimi = 2
  ndimj = 2
  write_out = .FALSE.
&END
