&NAMDIM
  nx = 80
  ny = 80
  nstop = 20000
  resi_limit = 0.01
  xmin = 0.0
  xmax = 1.0
  ymin = 0.0
  ymax = 1.0
  ndimi = 2
  ndimj = 3
&END
