&NAMDIM
  nx=101
  ny=101
  dt=0.00002
  nstop=2000
  d=1.0
  restart=.FALSE.
&END
